resultados/NW08/NW08_EXP_VOLTAGES.CSV
Bus, BasekV, Node1, Magnitude1, Angle1, pu1, Node2, Magnitude2, Angle2, pu2, Node3, Magnitude3, Angle3, pu3
"NW_ALNW08", 13.8, 1,    7950.86,   -0.1,   0.99792, 2,    7950.86, -120.1,   0.99792, 3,    7950.86,  119.9,   0.99792
"SNW_NW08_9442_BSB006", 13.8, 1,    7595.17,   -0.8,   0.95328, 2,    7595.16, -120.8,   0.95328, 3,    7595.16,  119.2,   0.95328
"SNW_NW08_9443_BSB006", 13.8, 1,    7595.21,   -0.8,   0.95328, 2,    7595.21, -120.8,   0.95328, 3,    7595.21,  119.2,   0.95328
"SNW_NW08_9300_BSB006", 13.8, 1,    7564.48,   -0.8,   0.94942, 2,    7564.47, -120.8,   0.94942, 3,    7564.47,  119.2,   0.94942
"SNW_NW08_9301_BSB006", 13.8, 1,    7563.68,   -0.8,   0.94932, 2,    7563.68, -120.8,   0.94932, 3,    7563.68,  119.2,   0.94932
"SNW_NW08_9079_BSB004", 13.8, 1,    7729.05,   -0.5,   0.97008, 2,    7729.05, -120.5,   0.97008, 3,    7729.05,  119.5,   0.97008
"SNW_NW08_9104_BSB004", 13.8, 1,    7729.07,   -0.5,   0.97008, 2,    7729.07, -120.5,   0.97008, 3,    7729.07,  119.5,   0.97008
"SNW_NW08_9333_BSB006", 13.8, 1,     7579.1,   -0.8,   0.95126, 2,     7579.1, -120.8,   0.95126, 3,     7579.1,  119.2,   0.95126
"SNW_NW08_9342_BSB006", 13.8, 1,    7579.05,   -0.8,   0.95125, 2,    7579.05, -120.8,   0.95125, 3,    7579.05,  119.2,   0.95125
"SNW_NW08_9187_BSB003", 13.8, 1,    7752.58,   -0.4,   0.97303, 2,    7752.58, -120.4,   0.97303, 3,    7752.58,  119.6,   0.97303
"SNW_NW08_9048_BSBRJ015_ATV", 13.8, 1,    7753.91,   -0.4,    0.9732, 2,    7753.91, -120.4,    0.9732, 3,    7753.91,  119.6,    0.9732
"SNW_NW08_9429_BSB006_S", 13.8, 1,    7583.16,   -0.8,   0.95177, 2,    7583.16, -120.8,   0.95177, 3,    7583.15,  119.2,   0.95177
"SNW_NW08_9430_BSB006", 13.8, 1,    7583.16,   -0.8,   0.95177, 2,    7583.16, -120.8,   0.95177, 3,    7583.15,  119.2,   0.95177
"SNW_NW08_9352_BSB006", 13.8, 1,    7578.71,   -0.8,   0.95121, 2,     7578.7, -120.8,   0.95121, 3,     7578.7,  119.2,   0.95121
"SNW_NW08_9353_BSB006", 13.8, 1,    7578.71,   -0.8,   0.95121, 2,     7578.7, -120.8,   0.95121, 3,     7578.7,  119.2,   0.95121
"SNW_NW08_9325_BSB006", 13.8, 1,    7557.44,   -0.8,   0.94854, 2,    7557.44, -120.8,   0.94854, 3,    7557.44,  119.2,   0.94854
"SNW_NW08_9326_BSB006_S", 13.8, 1,    7557.42,   -0.8,   0.94854, 2,    7557.42, -120.8,   0.94854, 3,    7557.42,  119.2,   0.94854
"SNW_NW08_9121_BSB004", 13.8, 1,    7730.21,   -0.5,   0.97023, 2,    7730.21, -120.5,   0.97023, 3,    7730.21,  119.5,   0.97023
"SNW_NW08_9122_BSB004", 13.8, 1,    7729.43,   -0.5,   0.97013, 2,    7729.42, -120.5,   0.97013, 3,    7729.42,  119.5,   0.97013
"SNW_NW08_9065_BSB004", 13.8, 1,    7728.58,   -0.5,   0.97002, 2,    7728.58, -120.5,   0.97002, 3,    7728.58,  119.5,   0.97002
"SNW_NW08_9066_BSB004", 13.8, 1,    7728.59,   -0.5,   0.97002, 2,    7728.59, -120.5,   0.97002, 3,    7728.59,  119.5,   0.97002
"SNW_NW08_9063_BSB004_S", 13.8, 1,    7728.57,   -0.5,   0.97002, 2,    7728.56, -120.5,   0.97002, 3,    7728.56,  119.5,   0.97002
"SNW_NW08_9064_BSB004", 13.8, 1,    7728.57,   -0.5,   0.97002, 2,    7728.57, -120.5,   0.97002, 3,    7728.57,  119.5,   0.97002
"SNW_NW08_9053_BSB004", 13.8, 1,     7722.2,   -0.5,   0.96922, 2,     7722.2, -120.5,   0.96922, 3,     7722.2,  119.5,   0.96922
"SNW_NW08_9054_BSB004", 13.8, 1,       7722,   -0.5,    0.9692, 2,       7722, -120.5,    0.9692, 3,       7722,  119.5,    0.9692
"SNW_NW08_9209_BSB004", 13.8, 1,     7723.5,   -0.5,   0.96938, 2,     7723.5, -120.5,   0.96938, 3,    7723.49,  119.5,   0.96938
"SNW_NW08_9210_BSB004", 13.8, 1,    7723.79,   -0.5,   0.96942, 2,    7723.78, -120.5,   0.96942, 3,    7723.78,  119.5,   0.96942
"SNW_NW08_9363_BSB006", 13.8, 1,    7580.06,   -0.8,   0.95138, 2,    7580.05, -120.8,   0.95138, 3,    7580.05,  119.2,   0.95138
"SNW_NW08_9364_BSB006", 13.8, 1,    7580.32,   -0.8,   0.95141, 2,    7580.32, -120.8,   0.95141, 3,    7580.32,  119.2,   0.95141
"SNW_NW08_9440_BSB006", 13.8, 1,    7595.07,   -0.8,   0.95326, 2,    7595.07, -120.8,   0.95326, 3,    7595.07,  119.2,   0.95326
"SNW_NW08_9441_BSB006", 13.8, 1,    7595.12,   -0.8,   0.95327, 2,    7595.11, -120.8,   0.95327, 3,    7595.11,  119.2,   0.95327
"SNW_NW08_9307_BSB006", 13.8, 1,    7560.46,   -0.8,   0.94892, 2,    7560.46, -120.8,   0.94892, 3,    7560.46,  119.2,   0.94892
"SNW_NW08_9308_BSB006", 13.8, 1,    7559.79,   -0.8,   0.94884, 2,    7559.79, -120.8,   0.94884, 3,    7559.79,  119.2,   0.94884
"SNW_NW08_9083_BSBRJ015_ATV", 13.8, 1,    7836.99,   -0.2,   0.98363, 2,    7836.99, -120.2,   0.98363, 3,    7836.99,  119.8,   0.98363
"SNW_NW08_9081_BSBRJ015_ATV", 13.8, 1,    7850.42,   -0.2,   0.98531, 2,    7850.42, -120.2,   0.98531, 3,    7850.42,  119.8,   0.98531
"SNW_NW08_9055_BSB004", 13.8, 1,    7721.88,   -0.5,   0.96918, 2,    7721.88, -120.5,   0.96918, 3,    7721.88,  119.5,   0.96918
"SNW_NW08_9056_BSB004", 13.8, 1,    7721.78,   -0.5,   0.96917, 2,    7721.77, -120.5,   0.96917, 3,    7721.77,  119.5,   0.96917
"SNW_NW08_9245_BSB004", 13.8, 1,    7722.39,   -0.5,   0.96924, 2,    7722.39, -120.5,   0.96924, 3,    7722.39,  119.5,   0.96924
"SNW_NW08_9246_BSB004", 13.8, 1,    7722.61,   -0.5,   0.96927, 2,     7722.6, -120.5,   0.96927, 3,     7722.6,  119.5,   0.96927
"SNW_NW08_9247_BSB004", 13.8, 1,    7722.81,   -0.5,    0.9693, 2,    7722.81, -120.5,    0.9693, 3,    7722.81,  119.5,    0.9693
"SNW_NW08_9248_BSB004", 13.8, 1,    7723.02,   -0.5,   0.96932, 2,    7723.01, -120.5,   0.96932, 3,    7723.01,  119.5,   0.96932
"SNW_NW08_9249_BSB004", 13.8, 1,    7723.19,   -0.5,   0.96935, 2,    7723.19, -120.5,   0.96934, 3,    7723.19,  119.5,   0.96934
"SNW_NW08_9228_BSB004", 13.8, 1,    7723.58,   -0.5,   0.96939, 2,    7723.58, -120.5,   0.96939, 3,    7723.58,  119.5,   0.96939
"SNW_NW08_9229_BSB004", 13.8, 1,     7723.4,   -0.5,   0.96937, 2,     7723.4, -120.5,   0.96937, 3,     7723.4,  119.5,   0.96937
"SNW_NW08_9109_BSB004", 13.8, 1,    7728.45,   -0.5,      0.97, 2,    7728.45, -120.5,      0.97, 3,    7728.45,  119.5,      0.97
"SNW_NW08_9111_BSB004_S", 13.8, 1,    7728.36,   -0.5,   0.96999, 2,    7728.36, -120.5,   0.96999, 3,    7728.36,  119.5,   0.96999
"SNW_NW08_9112_BSB004", 13.8, 1,    7728.28,   -0.5,   0.96998, 2,    7728.27, -120.5,   0.96998, 3,    7728.27,  119.5,   0.96998
"SNW_NW08_9113_BSB004", 13.8, 1,    7728.19,   -0.5,   0.96997, 2,    7728.19, -120.5,   0.96997, 3,    7728.19,  119.5,   0.96997
"SNW_NW08_9001_BSB004", 13.8, 1,    7728.18,   -0.5,   0.96997, 2,    7728.17, -120.5,   0.96997, 3,    7728.17,  119.5,   0.96997
"SNW_NW08_9003_BSB004", 13.8, 1,    7728.14,   -0.5,   0.96997, 2,    7728.14, -120.5,   0.96997, 3,    7728.14,  119.5,   0.96997
"SNW_NW08_9077_BSB004", 13.8, 1,    7728.33,   -0.5,   0.96999, 2,    7728.32, -120.5,   0.96999, 3,    7728.32,  119.5,   0.96999
"SNW_NW08_9110_BSB004", 13.8, 1,    7728.36,   -0.5,   0.96999, 2,    7728.36, -120.5,   0.96999, 3,    7728.36,  119.5,   0.96999
"SNW_NW08_9076_BSB004", 13.8, 1,    7728.29,   -0.5,   0.96999, 2,    7728.29, -120.5,   0.96999, 3,    7728.29,  119.5,   0.96999
"SNW_NW08_9035_BSB004", 13.8, 1,    7728.11,   -0.5,   0.96996, 2,    7728.11, -120.5,   0.96996, 3,    7728.11,  119.5,   0.96996
"SNW_NW08_9036_BSB004", 13.8, 1,    7728.11,   -0.5,   0.96996, 2,    7728.11, -120.5,   0.96996, 3,    7728.11,  119.5,   0.96996
"SNW_NW08_9036_BSB004_S", 13.8, 1,    7728.63,   -0.5,   0.97003, 2,    7728.63, -120.5,   0.97003, 3,    7728.63,  119.5,   0.97003
"SNW_NW08_9037_BSB004", 13.8, 1,    7728.63,   -0.5,   0.97003, 2,    7728.63, -120.5,   0.97003, 3,    7728.63,  119.5,   0.97003
"SNW_NW08_9220_BSB003", 13.8, 1,    7723.75,   -0.5,   0.96942, 2,    7723.75, -120.5,   0.96942, 3,    7723.75,  119.5,   0.96942
"SNW_NW08_9142_BSB004", 13.8, 1,    7722.01,   -0.5,    0.9692, 2,    7722.01, -120.5,    0.9692, 3,    7722.01,  119.5,    0.9692
"SNW_NW08_9143_BSB004", 13.8, 1,    7722.16,   -0.5,   0.96922, 2,    7722.16, -120.5,   0.96921, 3,    7722.16,  119.5,   0.96921
"SNW_NW08_9189_BSB003", 13.8, 1,     7748.2,   -0.4,   0.97248, 2,     7748.2, -120.4,   0.97248, 3,     7748.2,  119.6,   0.97248
"SNW_NW08_9190_BSB003", 13.8, 1,    7746.02,   -0.4,   0.97221, 2,    7746.02, -120.4,   0.97221, 3,    7746.02,  119.6,   0.97221
"SNW_NW08_9191_BSB003", 13.8, 1,    7743.86,   -0.4,   0.97194, 2,    7743.86, -120.4,   0.97194, 3,    7743.85,  119.6,   0.97194
"SNW_NW08_9192_BSB003", 13.8, 1,     7741.7,   -0.4,   0.97167, 2,     7741.7, -120.4,   0.97167, 3,     7741.7,  119.6,   0.97167
"SNW_NW08_9193_BSB003", 13.8, 1,    7739.58,   -0.4,    0.9714, 2,    7739.58, -120.4,    0.9714, 3,    7739.58,  119.6,    0.9714
"SNW_NW08_9195_BSB003", 13.8, 1,    7735.53,   -0.5,   0.97089, 2,    7735.53, -120.5,   0.97089, 3,    7735.53,  119.5,   0.97089
"SNW_NW08_9198_BSB003", 13.8, 1,    7734.17,   -0.5,   0.97072, 2,    7734.16, -120.5,   0.97072, 3,    7734.16,  119.5,   0.97072
"SNW_NW08_9199_BSB003", 13.8, 1,    7733.68,   -0.5,   0.97066, 2,    7733.68, -120.5,   0.97066, 3,    7733.68,  119.5,   0.97066
"SNW_NW08_9117_BSB004", 13.8, 1,    7732.84,   -0.5,   0.97056, 2,    7732.84, -120.5,   0.97056, 3,    7732.84,  119.5,   0.97056
"SNW_NW08_9118_BSB004", 13.8, 1,    7732.23,   -0.5,   0.97048, 2,    7732.23, -120.5,   0.97048, 3,    7732.23,  119.5,   0.97048
"SNW_NW08_9119_BSB004", 13.8, 1,    7731.57,   -0.5,    0.9704, 2,    7731.57, -120.5,    0.9704, 3,    7731.57,  119.5,    0.9704
"SNW_NW08_9120_BSB004", 13.8, 1,    7730.99,   -0.5,   0.97032, 2,    7730.99, -120.5,   0.97032, 3,    7730.99,  119.5,   0.97032
"SNW_NW08_9105_BSB004", 13.8, 1,    7728.88,   -0.5,   0.97006, 2,    7728.88, -120.5,   0.97006, 3,    7728.88,  119.5,   0.97006
"SNW_NW08_9107_BSB004", 13.8, 1,    7728.65,   -0.5,   0.97003, 2,    7728.64, -120.5,   0.97003, 3,    7728.64,  119.5,   0.97003
"SNW_NW08_9108_BSB004", 13.8, 1,    7728.56,   -0.5,   0.97002, 2,    7728.56, -120.5,   0.97002, 3,    7728.56,  119.5,   0.97002
"SNW_NW08_9123_BSB004", 13.8, 1,    7729.32,   -0.5,   0.97011, 2,    7729.32, -120.5,   0.97011, 3,    7729.32,  119.5,   0.97011
"SNW_NW08_9124_BSB004", 13.8, 1,    7728.75,   -0.5,   0.97004, 2,    7728.75, -120.5,   0.97004, 3,    7728.75,  119.5,   0.97004
"SNW_NW08_9127_BSB004", 13.8, 1,    7728.28,   -0.5,   0.96998, 2,    7728.28, -120.5,   0.96998, 3,    7728.28,  119.5,   0.96998
"SNW_NW08_9128_BSB004", 13.8, 1,    7728.28,   -0.5,   0.96998, 2,    7728.28, -120.5,   0.96998, 3,    7728.28,  119.5,   0.96998
"SNW_NW08_9129_BSB004", 13.8, 1,     7721.5,   -0.5,   0.96913, 2,     7721.5, -120.5,   0.96913, 3,     7721.5,  119.5,   0.96913
"SNW_NW08_9131_BSB004", 13.8, 1,    7721.52,   -0.5,   0.96914, 2,    7721.52, -120.5,   0.96914, 3,    7721.52,  119.5,   0.96914
"SNW_NW08_9132_BSB004", 13.8, 1,    7721.55,   -0.5,   0.96914, 2,    7721.55, -120.5,   0.96914, 3,    7721.55,  119.5,   0.96914
"SNW_NW08_9133_BSB004", 13.8, 1,    7721.58,   -0.5,   0.96914, 2,    7721.57, -120.5,   0.96914, 3,    7721.57,  119.5,   0.96914
"SNW_NW08_9134_BSB004", 13.8, 1,    7721.61,   -0.5,   0.96915, 2,     7721.6, -120.5,   0.96915, 3,     7721.6,  119.5,   0.96915
"SNW_NW08_9136_BSB004", 13.8, 1,    7721.66,   -0.5,   0.96915, 2,    7721.66, -120.5,   0.96915, 3,    7721.66,  119.5,   0.96915
"SNW_NW08_9137_BSB004", 13.8, 1,    7721.69,   -0.5,   0.96916, 2,    7721.69, -120.5,   0.96916, 3,    7721.69,  119.5,   0.96916
"SNW_NW08_9138_BSB004", 13.8, 1,    7721.71,   -0.5,   0.96916, 2,    7721.71, -120.5,   0.96916, 3,    7721.71,  119.5,   0.96916
"SNW_NW08_9140_BSB004", 13.8, 1,    7721.74,   -0.5,   0.96916, 2,    7721.74, -120.5,   0.96916, 3,    7721.74,  119.5,   0.96916
"SNW_NW08_9144_BSB004", 13.8, 1,    7722.25,   -0.5,   0.96923, 2,    7722.25, -120.5,   0.96923, 3,    7722.25,  119.5,   0.96923
"SNW_NW08_9145_BSB004", 13.8, 1,    7722.39,   -0.5,   0.96924, 2,    7722.39, -120.5,   0.96924, 3,    7722.39,  119.5,   0.96924
"SNW_NW08_9309_BSB006", 13.8, 1,    7559.31,   -0.8,   0.94878, 2,    7559.31, -120.8,   0.94878, 3,    7559.31,  119.2,   0.94878
"SNW_NW08_9071_BSB004", 13.8, 1,    7728.69,   -0.5,   0.97003, 2,    7728.68, -120.5,   0.97003, 3,    7728.68,  119.5,   0.97003
"SNW_NW08_9072_BSB004", 13.8, 1,    7728.69,   -0.5,   0.97004, 2,    7728.69, -120.5,   0.97004, 3,    7728.69,  119.5,   0.97004
"SNW_NW08_9068_BSB004", 13.8, 1,    7728.62,   -0.5,   0.97003, 2,    7728.62, -120.5,   0.97003, 3,    7728.62,  119.5,   0.97003
"SNW_NW08_9069_BSB004", 13.8, 1,    7728.63,   -0.5,   0.97003, 2,    7728.63, -120.5,   0.97003, 3,    7728.63,  119.5,   0.97003
"SNW_NW08_9067_BSB004", 13.8, 1,    7728.61,   -0.5,   0.97002, 2,     7728.6, -120.5,   0.97002, 3,     7728.6,  119.5,   0.97002
"SNW_NW08_9070_BSB004", 13.8, 1,    7728.68,   -0.5,   0.97003, 2,    7728.67, -120.5,   0.97003, 3,    7728.67,  119.5,   0.97003
"SNW_NW08_9004_BSB004", 13.8, 1,    7728.14,   -0.5,   0.96997, 2,    7728.14, -120.5,   0.96997, 3,    7728.14,  119.5,   0.96997
"SNW_NW08_9005_BSB004", 13.8, 1,    7728.14,   -0.5,   0.96997, 2,    7728.14, -120.5,   0.96997, 3,    7728.14,  119.5,   0.96997
"SNW_NW08_9006_BSB004", 13.8, 1,    7728.14,   -0.5,   0.96997, 2,    7728.14, -120.5,   0.96997, 3,    7728.14,  119.5,   0.96997
"SNW_NW08_9008_BSB004", 13.8, 1,    7721.25,   -0.5,    0.9691, 2,    7721.25, -120.5,    0.9691, 3,    7721.25,  119.5,    0.9691
"SNW_NW08_9010_BSB004", 13.8, 1,    7721.25,   -0.5,    0.9691, 2,    7721.25, -120.5,    0.9691, 3,    7721.25,  119.5,    0.9691
"SNW_NW08_9011_BSB004", 13.8, 1,    7721.26,   -0.5,    0.9691, 2,    7721.26, -120.5,    0.9691, 3,    7721.26,  119.5,    0.9691
"SNW_NW08_9012_BSB004", 13.8, 1,    7721.27,   -0.5,    0.9691, 2,    7721.27, -120.5,    0.9691, 3,    7721.27,  119.5,    0.9691
"SNW_NW08_9013_BSB004", 13.8, 1,    7721.28,   -0.5,   0.96911, 2,    7721.28, -120.5,   0.96911, 3,    7721.28,  119.5,   0.96911
"SNW_NW08_9014_BSB004", 13.8, 1,     7721.3,   -0.5,   0.96911, 2,     7721.3, -120.5,   0.96911, 3,     7721.3,  119.5,   0.96911
"SNW_NW08_9015_BSB004", 13.8, 1,    7721.28,   -0.5,    0.9691, 2,    7721.27, -120.5,    0.9691, 3,    7721.27,  119.5,    0.9691
"SNW_NW08_9017_BSB004", 13.8, 1,    7721.23,   -0.5,    0.9691, 2,    7721.23, -120.5,    0.9691, 3,    7721.23,  119.5,    0.9691
"SNW_NW08_9018_BSB004_S", 13.8, 1,    7721.18,   -0.5,   0.96909, 2,    7721.18, -120.5,   0.96909, 3,    7721.18,  119.5,   0.96909
"SNW_NW08_9243_BSB004", 13.8, 1,    7721.11,   -0.5,   0.96908, 2,    7721.11, -120.5,   0.96908, 3,    7721.11,  119.5,   0.96908
"SNW_NW08_9244_BSB004", 13.8, 1,    7721.14,   -0.5,   0.96909, 2,    7721.14, -120.5,   0.96909, 3,    7721.14,  119.5,   0.96909
"SNW_NW08_9240_BSB004", 13.8, 1,    7721.06,   -0.5,   0.96908, 2,    7721.06, -120.5,   0.96908, 3,    7721.06,  119.5,   0.96908
"SNW_NW08_9242_BSB004", 13.8, 1,    7721.09,   -0.5,   0.96908, 2,    7721.09, -120.5,   0.96908, 3,    7721.09,  119.5,   0.96908
"SNW_NW08_9237_BSB004", 13.8, 1,    7721.03,   -0.5,   0.96907, 2,    7721.02, -120.5,   0.96907, 3,    7721.02,  119.5,   0.96907
"SNW_NW08_9238_BSB004", 13.8, 1,    7721.04,   -0.5,   0.96907, 2,    7721.04, -120.5,   0.96907, 3,    7721.04,  119.5,   0.96907
"SNW_NW08_9197_BSB004", 13.8, 1,    7720.91,   -0.5,   0.96906, 2,    7720.91, -120.5,   0.96906, 3,    7720.91,  119.5,   0.96906
"SNW_NW08_9198_BSB004", 13.8, 1,    7721.12,   -0.5,   0.96908, 2,    7721.12, -120.5,   0.96908, 3,    7721.12,  119.5,   0.96908
"SNW_NW08_9044_BSB004", 13.8, 1,    7728.48,   -0.5,   0.97001, 2,    7728.48, -120.5,   0.97001, 3,    7728.48,  119.5,   0.97001
"SNW_NW08_9046_BSB004", 13.8, 1,    7728.47,   -0.5,   0.97001, 2,    7728.47, -120.5,   0.97001, 3,    7728.47,  119.5,   0.97001
"SNW_NW08_9038_BSB004", 13.8, 1,    7728.61,   -0.5,   0.97003, 2,    7728.61, -120.5,   0.97003, 3,    7728.61,  119.5,   0.97002
"SNW_NW08_9039_BSB004", 13.8, 1,    7728.57,   -0.5,   0.97002, 2,    7728.57, -120.5,   0.97002, 3,    7728.57,  119.5,   0.97002
"SNW_NW08_9194_BSB004_S", 13.8, 1,    7720.43,   -0.5,     0.969, 2,    7720.42, -120.5,     0.969, 3,    7720.42,  119.5,     0.969
"SNW_NW08_9196_BSB004", 13.8, 1,     7720.7,   -0.5,   0.96903, 2,     7720.7, -120.5,   0.96903, 3,     7720.7,  119.5,   0.96903
"SNW_NW08_9020_BSB004", 13.8, 1,    7721.32,   -0.5,   0.96911, 2,    7721.32, -120.5,   0.96911, 3,    7721.32,  119.5,   0.96911
"SNW_NW08_9200_BSB003", 13.8, 1,    7733.19,   -0.5,    0.9706, 2,    7733.19, -120.5,    0.9706, 3,    7733.19,  119.5,    0.9706
"SNW_NW08_9201_BSB003_S", 13.8, 1,    7732.63,   -0.5,   0.97053, 2,    7732.63, -120.5,   0.97053, 3,    7732.63,  119.5,   0.97053
"SNW_NW08_9217_BSB003", 13.8, 1,    7724.95,   -0.5,   0.96957, 2,    7724.95, -120.5,   0.96957, 3,    7724.94,  119.5,   0.96957
"SNW_NW08_9218_BSB003", 13.8, 1,    7724.46,   -0.5,    0.9695, 2,    7724.46, -120.5,    0.9695, 3,    7724.46,  119.5,    0.9695
"SNW_NW08_9255_BSB004", 13.8, 1,    7726.53,   -0.5,   0.96976, 2,    7726.53, -120.5,   0.96976, 3,    7726.53,  119.5,   0.96976
"SNW_NW08_9214_BSB003", 13.8, 1,    7726.54,   -0.5,   0.96977, 2,    7726.54, -120.5,   0.96976, 3,    7726.54,  119.5,   0.96976
"SNW_NW08_9061_BSB004", 13.8, 1,    7728.57,   -0.5,   0.97002, 2,    7728.56, -120.5,   0.97002, 3,    7728.56,  119.5,   0.97002
"SNW_NW08_9062_BSB004", 13.8, 1,    7728.57,   -0.5,   0.97002, 2,    7728.56, -120.5,   0.97002, 3,    7728.56,  119.5,   0.97002
"SNW_NW08_9221_BSB003", 13.8, 1,    7723.74,   -0.5,   0.96941, 2,    7723.74, -120.5,   0.96941, 3,    7723.74,  119.5,   0.96941
"SNW_NW08_9222_BSB003", 13.8, 1,    7723.74,   -0.5,   0.96941, 2,    7723.74, -120.5,   0.96941, 3,    7723.74,  119.5,   0.96941
"SNW_NW08_9114_BSB004", 13.8, 1,    7728.18,   -0.5,   0.96997, 2,    7728.18, -120.5,   0.96997, 3,    7728.18,  119.5,   0.96997
"SNW_NW08_9037_BSB004_S", 13.8, 1,    7728.63,   -0.5,   0.97003, 2,    7728.63, -120.5,   0.97003, 3,    7728.63,  119.5,   0.97003
"SNW_NW08_9188_BSB003", 13.8, 1,    7750.37,   -0.4,   0.97276, 2,    7750.37, -120.4,   0.97276, 3,    7750.37,  119.6,   0.97276
"SNW_NW08_9194_BSB003", 13.8, 1,    7737.47,   -0.4,   0.97114, 2,    7737.47, -120.4,   0.97114, 3,    7737.47,  119.6,   0.97114
"SNW_NW08_9128_BSB004_S", 13.8, 1,     7721.5,   -0.5,   0.96913, 2,     7721.5, -120.5,   0.96913, 3,     7721.5,  119.5,   0.96913
"SNW_NW08_9135_BSB004", 13.8, 1,    7721.63,   -0.5,   0.96915, 2,    7721.63, -120.5,   0.96915, 3,    7721.63,  119.5,   0.96915
"SNW_NW08_9145_BSB004_S", 13.8, 1,    7722.39,   -0.5,   0.96924, 2,    7722.39, -120.5,   0.96924, 3,    7722.39,  119.5,   0.96924
"SNW_NW08_9146_BSB004", 13.8, 1,    7722.58,   -0.5,   0.96927, 2,    7722.57, -120.5,   0.96927, 3,    7722.57,  119.5,   0.96927
"SNW_NW08_9151_BSB004", 13.8, 1,    7723.21,   -0.5,   0.96935, 2,    7723.21, -120.5,   0.96935, 3,    7723.21,  119.5,   0.96935
"SNW_NW08_9207_BSB004", 13.8, 1,    7723.08,   -0.5,   0.96933, 2,    7723.08, -120.5,   0.96933, 3,    7723.08,  119.5,   0.96933
"SNW_NW08_9126_BSB004", 13.8, 1,    7728.22,   -0.5,   0.96998, 2,    7728.22, -120.5,   0.96998, 3,    7728.22,  119.5,   0.96998
"SNW_NW08_9172_BSB004_S", 13.8, 1,    7719.96,   -0.5,   0.96894, 2,    7719.96, -120.5,   0.96894, 3,    7719.96,  119.5,   0.96894
"SNW_NW08_9176_BSB004", 13.8, 1,    7719.96,   -0.5,   0.96894, 2,    7719.96, -120.5,   0.96894, 3,    7719.96,  119.5,   0.96894
"SNW_NW08_9182_BSB004", 13.8, 1,    7720.05,   -0.5,   0.96895, 2,    7720.05, -120.5,   0.96895, 3,    7720.05,  119.5,   0.96895
"SNW_NW08_9184_BSB004", 13.8, 1,     7720.1,   -0.5,   0.96896, 2,     7720.1, -120.5,   0.96896, 3,     7720.1,  119.5,   0.96896
"SNW_NW08_9188_BSB004", 13.8, 1,    7720.33,   -0.5,   0.96899, 2,    7720.33, -120.5,   0.96899, 3,    7720.33,  119.5,   0.96899
"SNW_NW08_9194_BSB004", 13.8, 1,    7720.43,   -0.5,     0.969, 2,    7720.42, -120.5,     0.969, 3,    7720.42,  119.5,     0.969
"SNW_NW08_9199_BSB004", 13.8, 1,    7721.39,   -0.5,   0.96912, 2,    7721.39, -120.5,   0.96912, 3,    7721.39,  119.5,   0.96912
"SNW_NW08_9200_BSB004", 13.8, 1,    7721.64,   -0.5,   0.96915, 2,    7721.64, -120.5,   0.96915, 3,    7721.64,  119.5,   0.96915
"SNW_NW08_9204_BSB004", 13.8, 1,    7722.65,   -0.5,   0.96928, 2,    7722.65, -120.5,   0.96928, 3,    7722.65,  119.5,   0.96928
"SNW_NW08_9205_BSB004", 13.8, 1,    7722.81,   -0.5,    0.9693, 2,    7722.81, -120.5,    0.9693, 3,    7722.81,  119.5,    0.9693
"SNW_NW08_9206_BSB004_S", 13.8, 1,    7722.97,   -0.5,   0.96932, 2,    7722.97, -120.5,   0.96932, 3,    7722.97,  119.5,   0.96932
"SNW_NW08_9033_BSB004_S", 13.8, 1,    7728.06,   -0.5,   0.96996, 2,    7728.06, -120.5,   0.96996, 3,    7728.06,  119.5,   0.96996
"SNW_NW08_9034_BSB004", 13.8, 1,     7728.1,   -0.5,   0.96996, 2,     7728.1, -120.5,   0.96996, 3,     7728.1,  119.5,   0.96996
"SNW_NW08_9027_BSB004_S", 13.8, 1,    7728.01,   -0.5,   0.96995, 2,    7728.01, -120.5,   0.96995, 3,    7728.01,  119.5,   0.96995
"SNW_NW08_9028_BSB004", 13.8, 1,    7728.02,   -0.5,   0.96995, 2,    7728.02, -120.5,   0.96995, 3,    7728.02,  119.5,   0.96995
"SNW_NW08_9168_BSB004", 13.8, 1,    7726.97,   -0.5,   0.96982, 2,    7726.97, -120.5,   0.96982, 3,    7726.97,  119.5,   0.96982
"SNW_NW08_9169_BSB004", 13.8, 1,    7727.28,   -0.5,   0.96986, 2,    7727.28, -120.5,   0.96986, 3,    7727.28,  119.5,   0.96986
"SNW_NW08_9157_BSB004", 13.8, 1,    7724.14,   -0.5,   0.96946, 2,    7724.14, -120.5,   0.96946, 3,    7724.14,  119.5,   0.96946
"SNW_NW08_9158_BSB004", 13.8, 1,    7724.39,   -0.5,    0.9695, 2,    7724.39, -120.5,    0.9695, 3,    7724.39,  119.5,   0.96949
"SNW_NW08_9152_BSB004", 13.8, 1,    7723.34,   -0.5,   0.96936, 2,    7723.34, -120.5,   0.96936, 3,    7723.34,  119.5,   0.96936
"SNW_NW08_9153_BSB004", 13.8, 1,    7723.44,   -0.5,   0.96938, 2,    7723.44, -120.5,   0.96938, 3,    7723.44,  119.5,   0.96938
"SNW_NW08_9028_BSBRJ015_ATV", 13.8, 1,     7701.9,   -0.5,   0.96667, 2,     7701.9, -120.5,   0.96667, 3,     7701.9,  119.5,   0.96667
"SNW_NW08_9032_BSBRJ015_ATV", 13.8, 1,    7711.11,   -0.5,   0.96783, 2,    7711.11, -120.5,   0.96783, 3,    7711.11,  119.5,   0.96783
"SNW_NW08_9042_BSBRJ015_ATV", 13.8, 1,    7735.25,   -0.5,   0.97086, 2,    7735.25, -120.5,   0.97086, 3,    7735.25,  119.5,   0.97086
"SNW_NW08_9045_BSBRJ015_ATV", 13.8, 1,    7743.24,   -0.4,   0.97186, 2,    7743.24, -120.4,   0.97186, 3,    7743.24,  119.6,   0.97186
"SNW_NW08_9095_BSBRJ015_ATV", 13.8, 1,    7775.62,   -0.4,   0.97592, 2,    7775.62, -120.4,   0.97592, 3,    7775.62,  119.6,   0.97592
"SNW_NW08_9097_BSBRJ015_ATV", 13.8, 1,    7766.25,   -0.4,   0.97475, 2,    7766.25, -120.4,   0.97475, 3,    7766.25,  119.6,   0.97475
"SNW_NW08_9213_BSB004", 13.8, 1,    7720.15,   -0.5,   0.96896, 2,    7720.15, -120.5,   0.96896, 3,    7720.15,  119.5,   0.96896
"SNW_NW08_9214_BSB004", 13.8, 1,    7720.04,   -0.5,   0.96895, 2,    7720.04, -120.5,   0.96895, 3,    7720.04,  119.5,   0.96895
"SNW_NW08_9219_BSB004", 13.8, 1,    7719.66,   -0.5,    0.9689, 2,    7719.66, -120.5,    0.9689, 3,    7719.66,  119.5,    0.9689
"SNW_NW08_9220_BSB004", 13.8, 1,    7719.62,   -0.5,    0.9689, 2,    7719.62, -120.5,    0.9689, 3,    7719.62,  119.5,    0.9689
"SNW_NW08_9194_BSB006", 13.8, 1,    7581.64,   -0.8,   0.95158, 2,    7581.64, -120.8,   0.95158, 3,    7581.63,  119.2,   0.95158
"SNW_NW08_9195_BSB006", 13.8, 1,    7582.18,   -0.8,   0.95165, 2,    7582.18, -120.8,   0.95165, 3,    7582.18,  119.2,   0.95165
"SNW_NW08_9382_BSB006", 13.8, 1,    7583.16,   -0.8,   0.95177, 2,    7583.16, -120.8,   0.95177, 3,    7583.15,  119.2,   0.95177
"SNW_NW08_9383_BSB006", 13.8, 1,    7583.07,   -0.8,   0.95176, 2,    7583.07, -120.8,   0.95176, 3,    7583.07,  119.2,   0.95176
"SNW_NW08_9018_BSB004", 13.8, 1,    7721.18,   -0.5,   0.96909, 2,    7721.18, -120.5,   0.96909, 3,    7721.18,  119.5,   0.96909
"SNW_NW08_9116_BSB004", 13.8, 1,     7733.6,   -0.5,   0.97065, 2,     7733.6, -120.5,   0.97065, 3,     7733.6,  119.5,   0.97065
"SNW_NW08_9030_BSB004", 13.8, 1,    7728.03,   -0.5,   0.96995, 2,    7728.03, -120.5,   0.96995, 3,    7728.03,  119.5,   0.96995
"SNW_NW08_9031_BSB004", 13.8, 1,    7728.04,   -0.5,   0.96995, 2,    7728.04, -120.5,   0.96995, 3,    7728.04,  119.5,   0.96995
"SNW_NW08_9206_BSB003", 13.8, 1,    7729.85,   -0.5,   0.97018, 2,    7729.85, -120.5,   0.97018, 3,    7729.85,  119.5,   0.97018
"SNW_NW08_9207_BSB003", 13.8, 1,    7729.32,   -0.5,   0.97011, 2,    7729.32, -120.5,   0.97011, 3,    7729.32,  119.5,   0.97011
"SNW_NW08_9208_BSB003", 13.8, 1,    7728.75,   -0.5,   0.97004, 2,    7728.75, -120.5,   0.97004, 3,    7728.75,  119.5,   0.97004
"SNW_NW08_9209_BSB003", 13.8, 1,    7728.27,   -0.5,   0.96998, 2,    7728.27, -120.5,   0.96998, 3,    7728.27,  119.5,   0.96998
"SNW_NW08_9210_BSB003", 13.8, 1,    7727.71,   -0.5,   0.96991, 2,    7727.71, -120.5,   0.96991, 3,    7727.71,  119.5,   0.96991
"SNW_NW08_9215_BSB003", 13.8, 1,    7726.01,   -0.5,    0.9697, 2,       7726, -120.5,    0.9697, 3,       7726,  119.5,    0.9697
"SNW_NW08_9216_BSB003", 13.8, 1,    7725.44,   -0.5,   0.96963, 2,    7725.44, -120.5,   0.96963, 3,    7725.44,  119.5,   0.96963
"SNW_NW08_9219_BSB003", 13.8, 1,    7723.95,   -0.5,   0.96944, 2,    7723.95, -120.5,   0.96944, 3,    7723.95,  119.5,   0.96944
"SNW_NW08_9063_BSB004", 13.8, 1,    7728.57,   -0.5,   0.97002, 2,    7728.56, -120.5,   0.97002, 3,    7728.56,  119.5,   0.97002
"SNW_NW08_9058_BSB004", 13.8, 1,    7721.58,   -0.5,   0.96914, 2,    7721.57, -120.5,   0.96914, 3,    7721.57,  119.5,   0.96914
"SNW_NW08_9059_BSB004_S", 13.8, 1,    7721.58,   -0.5,   0.96914, 2,    7721.57, -120.5,   0.96914, 3,    7721.57,  119.5,   0.96914
"SNW_NW08_9057_BSB004", 13.8, 1,    7721.68,   -0.5,   0.96915, 2,    7721.67, -120.5,   0.96915, 3,    7721.67,  119.5,   0.96915
"SNW_NW08_9047_BSBRJ015_ATV", 13.8, 1,    7755.26,   -0.4,   0.97337, 2,    7755.26, -120.4,   0.97337, 3,    7755.26,  119.6,   0.97337
"SNW_NW08_9147_BSB004", 13.8, 1,    7722.76,   -0.5,   0.96929, 2,    7722.76, -120.5,   0.96929, 3,    7722.76,  119.5,   0.96929
"SNW_NW08_9148_BSB004", 13.8, 1,    7722.94,   -0.5,   0.96931, 2,    7722.94, -120.5,   0.96931, 3,    7722.94,  119.5,   0.96931
"SNW_NW08_9021_BSB004", 13.8, 1,    7721.36,   -0.5,   0.96912, 2,    7721.36, -120.5,   0.96912, 3,    7721.36,  119.5,   0.96912
"SNW_NW08_9026_BSB004", 13.8, 1,    7728.01,   -0.5,   0.96995, 2,    7728.01, -120.5,   0.96995, 3,    7728.01,  119.5,   0.96995
...
"SNW_NW08_BSB_FL_MT_420094", 13.8, 1,    7579.17,   -0.8,   0.95127, 2,    7579.17, -120.8,   0.95127, 3,    7579.17,  119.2,   0.95127
"SNW_NW08_9005_BSBRJ015_ATV", 13.8, 1,     7655.2,   -0.7,   0.96081, 2,     7655.2, -120.7,   0.96081, 3,     7655.2,  119.3,   0.96081
"SNW_NW08_9213_BSB003", 13.8, 1,    7727.09,   -0.5,   0.96983, 2,    7727.09, -120.5,   0.96983, 3,    7727.09,  119.5,   0.96983
"SNW_NW08_9447_BSB006", 13.8, 1,    7595.55,   -0.8,   0.95332, 2,    7595.55, -120.8,   0.95332, 3,    7595.55,  119.2,   0.95332
"SNW_NW08_9435_BSB006", 13.8, 1,    7594.97,   -0.8,   0.95325, 2,    7594.97, -120.8,   0.95325, 3,    7594.97,  119.2,   0.95325
"SNW_NW08_9436_BSB006", 13.8, 1,    7594.97,   -0.8,   0.95325, 2,    7594.97, -120.8,   0.95325, 3,    7594.97,  119.2,   0.95325
"SNW_NW08_9435_BSB006_S", 13.8, 1,    7583.07,   -0.8,   0.95176, 2,    7583.07, -120.8,   0.95176, 3,    7583.07,  119.2,   0.95176
"SNW_NW08_9413_BSB006", 13.8, 1,     7596.3,   -0.8,   0.95342, 2,     7596.3, -120.8,   0.95342, 3,     7596.3,  119.2,   0.95342
"SNW_NW08_9414_BSB006", 13.8, 1,     7596.2,   -0.8,   0.95341, 2,     7596.2, -120.8,   0.95341, 3,     7596.2,  119.2,   0.95341
"SNW_NW08_9268_BSB006", 13.8, 1,    7590.64,   -0.8,   0.95271, 2,    7590.63, -120.8,   0.95271, 3,    7590.63,  119.2,   0.95271
"SNW_NW08_9277_BSB006", 13.8, 1,    7579.25,   -0.8,   0.95128, 2,    7579.25, -120.8,   0.95128, 3,    7579.25,  119.2,   0.95128
"SNW_NW08_9292_BSB006", 13.8, 1,    7570.65,   -0.8,    0.9502, 2,    7570.65, -120.8,    0.9502, 3,    7570.64,  119.2,    0.9502
"SNW_NW08_9293_BSB006", 13.8, 1,    7569.56,   -0.8,   0.95006, 2,    7569.56, -120.8,   0.95006, 3,    7569.56,  119.2,   0.95006
"SNW_NW08_9313_BSB006", 13.8, 1,    7558.32,   -0.8,   0.94865, 2,    7558.32, -120.8,   0.94865, 3,    7558.32,  119.2,   0.94865
"SNW_NW08_9314_BSB006", 13.8, 1,    7558.11,   -0.8,   0.94863, 2,    7558.11, -120.8,   0.94863, 3,    7558.11,  119.2,   0.94863
"SNW_NW08_9316_BSB006", 13.8, 1,    7557.99,   -0.8,   0.94861, 2,    7557.99, -120.8,   0.94861, 3,    7557.99,  119.2,   0.94861
"SNW_NW08_9315_BSB006", 13.8, 1,    7558.05,   -0.8,   0.94862, 2,    7558.04, -120.8,   0.94862, 3,    7558.04,  119.2,   0.94862
"SNW_NW08_9323_BSB006", 13.8, 1,    7557.58,   -0.8,   0.94856, 2,    7557.58, -120.8,   0.94856, 3,    7557.57,  119.2,   0.94856
"SNW_NW08_9319_BSB006", 13.8, 1,    7557.82,   -0.8,   0.94859, 2,    7557.82, -120.8,   0.94859, 3,    7557.82,  119.2,   0.94859
"SNW_NW08_9321_BSB006", 13.8, 1,     7557.7,   -0.8,   0.94857, 2,     7557.7, -120.8,   0.94857, 3,     7557.7,  119.2,   0.94857
"SNW_NW08_9329_BSB006_S", 13.8, 1,    7557.42,   -0.8,   0.94854, 2,    7557.42, -120.8,   0.94854, 3,    7557.42,  119.2,   0.94854
"SNW_NW08_9402_BSB006", 13.8, 1,    7595.04,   -0.8,   0.95326, 2,    7595.04, -120.8,   0.95326, 3,    7595.03,  119.2,   0.95326
"SNW_NW08_9239_BSB004", 13.8, 1,    7721.05,   -0.5,   0.96908, 2,    7721.05, -120.5,   0.96908, 3,    7721.05,  119.5,   0.96908
"SNW_NW08_9220_BSB003_S", 13.8, 1,    7723.75,   -0.5,   0.96942, 2,    7723.75, -120.5,   0.96942, 3,    7723.75,  119.5,   0.96942
"SNW_NW08_9208_BSB004", 13.8, 1,    7723.32,   -0.5,   0.96936, 2,    7723.32, -120.5,   0.96936, 3,    7723.32,  119.5,   0.96936
"SNW_NW08_9181_BSB004", 13.8, 1,    7720.01,   -0.5,   0.96895, 2,       7720, -120.5,   0.96894, 3,       7720,  119.5,   0.96894
"SNW_NW08_9025_BSB004", 13.8, 1,    7728.01,   -0.5,   0.96995, 2,    7728.01, -120.5,   0.96995, 3,    7728.01,  119.5,   0.96995
"SNW_NW08_9356_BSB006", 13.8, 1,    7578.73,   -0.8,   0.95121, 2,    7578.73, -120.8,   0.95121, 3,    7578.73,  119.2,   0.95121
"SNW_NW08_9357_BSB006", 13.8, 1,    7578.73,   -0.8,   0.95121, 2,    7578.73, -120.8,   0.95121, 3,    7578.73,  119.2,   0.95121
"SNW_NW08_9241_BSB004", 13.8, 1,    7721.09,   -0.5,   0.96908, 2,    7721.09, -120.5,   0.96908, 3,    7721.09,  119.5,   0.96908
"SNW_NW08_9266_BSB004", 13.8, 1,    7730.95,   -0.5,   0.97032, 2,    7730.95, -120.5,   0.97032, 3,    7730.94,  119.5,   0.97032
"SNW_NW08_9106_BSB004", 13.8, 1,    7728.75,   -0.5,   0.97004, 2,    7728.75, -120.5,   0.97004, 3,    7728.75,  119.5,   0.97004
"SNW_NW08_9187_BSB004", 13.8, 1,     7720.2,   -0.5,   0.96897, 2,     7720.2, -120.5,   0.96897, 3,     7720.2,  119.5,   0.96897
"SNW_NW08_9166_BSB004", 13.8, 1,    7726.43,   -0.5,   0.96975, 2,    7726.43, -120.5,   0.96975, 3,    7726.43,  119.5,   0.96975
"SNW_NW08_9075_BSBRJ015_ATV", 13.8, 1,    7859.31,   -0.2,   0.98643, 2,    7859.31, -120.2,   0.98643, 3,    7859.31,  119.8,   0.98643
"SNW_NW08_9359_BSB006", 13.8, 1,    7578.78,   -0.8,   0.95122, 2,    7578.77, -120.8,   0.95122, 3,    7578.77,  119.2,   0.95122
"SNW_NW08_9197_BSB006", 13.8, 1,    7583.13,   -0.8,   0.95177, 2,    7583.13, -120.8,   0.95177, 3,    7583.12,  119.2,   0.95177
"SNW_NW08_9198_BSB006", 13.8, 1,    7583.11,   -0.8,   0.95176, 2,    7583.11, -120.8,   0.95176, 3,    7583.11,  119.2,   0.95176
"SNW_NW08_9203_BSB006_S", 13.8, 1,    7585.75,   -0.8,   0.95209, 2,    7585.75, -120.8,   0.95209, 3,    7585.75,  119.2,   0.95209
"SNW_NW08_9205_BSB006", 13.8, 1,    7585.98,   -0.8,   0.95212, 2,    7585.98, -120.8,   0.95212, 3,    7585.98,  119.2,   0.95212
"SNW_NW08_9203_BSB006", 13.8, 1,    7585.75,   -0.8,   0.95209, 2,    7585.75, -120.8,   0.95209, 3,    7585.75,  119.2,   0.95209
"SNW_NW08_9204_BSB006", 13.8, 1,    7585.75,   -0.8,   0.95209, 2,    7585.75, -120.8,   0.95209, 3,    7585.75,  119.2,   0.95209
"SNW_NW08_9206_BSB006", 13.8, 1,    7586.21,   -0.8,   0.95215, 2,    7586.21, -120.8,   0.95215, 3,    7586.21,  119.2,   0.95215
"SNW_NW08_9207_BSB006", 13.8, 1,    7586.14,   -0.8,   0.95214, 2,    7586.14, -120.8,   0.95214, 3,    7586.14,  119.2,   0.95214
"SNW_NW08_9209_BSB006", 13.8, 1,    7588.58,   -0.8,   0.95245, 2,    7588.58, -120.8,   0.95245, 3,    7588.58,  119.2,   0.95245
"SNW_NW08_9210_BSB006", 13.8, 1,    7588.54,   -0.8,   0.95244, 2,    7588.54, -120.8,   0.95244, 3,    7588.54,  119.2,   0.95244
"SNW_NW08_9262_BSB006", 13.8, 1,    7604.91,   -0.8,    0.9545, 2,    7604.91, -120.8,    0.9545, 3,    7604.91,  119.2,    0.9545
"SNW_NW08_9395_BSB007", 13.8, 1,    7582.97,   -0.8,   0.95175, 2,    7582.97, -120.8,   0.95175, 3,    7582.97,  119.2,   0.95175
"SNW_NW08_9384_BSB006", 13.8, 1,    7582.97,   -0.8,   0.95175, 2,    7582.97, -120.8,   0.95175, 3,    7582.97,  119.2,   0.95175
"SNW_NW08_9196_BSB006", 13.8, 1,    7582.72,   -0.8,   0.95171, 2,    7582.72, -120.8,   0.95171, 3,    7582.72,  119.2,   0.95171
"SNW_NW08_9184_BSB006", 13.8, 1,    7579.86,   -0.8,   0.95136, 2,    7579.86, -120.8,   0.95136, 3,    7579.86,  119.2,   0.95136
"SNW_NW08_9185_BSB006", 13.8, 1,    7579.96,   -0.8,   0.95137, 2,    7579.96, -120.8,   0.95137, 3,    7579.96,  119.2,   0.95137
"SNW_NW08_9060_BSB004", 13.8, 1,    7728.57,   -0.5,   0.97002, 2,    7728.56, -120.5,   0.97002, 3,    7728.56,  119.5,   0.97002
"SNW_NW08_9177_BSB004", 13.8, 1,    7719.96,   -0.5,   0.96894, 2,    7719.96, -120.5,   0.96894, 3,    7719.96,  119.5,   0.96894
"SNW_NW08_9179_BSB004", 13.8, 1,    7719.96,   -0.5,   0.96894, 2,    7719.96, -120.5,   0.96894, 3,    7719.96,  119.5,   0.96894
"SNW_NW08_9201_BSB004", 13.8, 1,    7721.85,   -0.5,   0.96918, 2,    7721.85, -120.5,   0.96918, 3,    7721.84,  119.5,   0.96918
"SNW_NW08_9202_BSB004", 13.8, 1,    7722.12,   -0.5,   0.96921, 2,    7722.12, -120.5,   0.96921, 3,    7722.12,  119.5,   0.96921
"SNW_NW08_9041_BSB004", 13.8, 1,    7728.53,   -0.5,   0.97002, 2,    7728.53, -120.5,   0.97002, 3,    7728.53,  119.5,   0.97002
"SNW_NW08_9218_BSB004", 13.8, 1,    7719.73,   -0.5,   0.96891, 2,    7719.73, -120.5,   0.96891, 3,    7719.73,  119.5,   0.96891
"SNW_NW08_9399_BSB006", 13.8, 1,    7591.91,   -0.8,   0.95287, 2,    7591.91, -120.8,   0.95287, 3,     7591.9,  119.2,   0.95287
"SNW_NW08_9400_BSB006", 13.8, 1,    7592.94,   -0.8,     0.953, 2,    7592.94, -120.8,     0.953, 3,    7592.93,  119.2,     0.953
"SNW_NW08_9398_BSB006", 13.8, 1,     7591.1,   -0.8,   0.95277, 2,     7591.1, -120.8,   0.95277, 3,     7591.1,  119.2,   0.95277
"SNW_NW08_9396_BSB006", 13.8, 1,    7588.81,   -0.8,   0.95248, 2,    7588.81, -120.8,   0.95248, 3,    7588.81,  119.2,   0.95248
"SNW_NW08_9276_BSB006", 13.8, 1,     7580.2,   -0.8,    0.9514, 2,     7580.2, -120.8,    0.9514, 3,     7580.2,  119.2,    0.9514
"SNW_NW08_9278_BSB006", 13.8, 1,    7579.24,   -0.8,   0.95128, 2,    7579.24, -120.8,   0.95128, 3,    7579.24,  119.2,   0.95128
"SNW_NW08_9280_BSB006", 13.8, 1,    7578.23,   -0.8,   0.95115, 2,    7578.23, -120.8,   0.95115, 3,    7578.23,  119.2,   0.95115
"SNW_NW08_9287_BSB006", 13.8, 1,     7573.3,   -0.8,   0.95053, 2,     7573.3, -120.8,   0.95053, 3,     7573.3,  119.2,   0.95053
"SNW_NW08_9302_BSB006", 13.8, 1,    7562.96,   -0.8,   0.94923, 2,    7562.96, -120.8,   0.94923, 3,    7562.96,  119.2,   0.94923
"SNW_NW08_9298_BSB006", 13.8, 1,    7566.58,   -0.8,   0.94969, 2,    7566.57, -120.8,   0.94969, 3,    7566.57,  119.2,   0.94969
"SNW_NW08_9291_BSB006", 13.8, 1,     7571.7,   -0.8,   0.95033, 2,    7571.69, -120.8,   0.95033, 3,    7571.69,  119.2,   0.95033
"SNW_NW08_9170_BSB006", 13.8, 1,    7579.23,   -0.8,   0.95128, 2,    7579.23, -120.8,   0.95128, 3,    7579.23,  119.2,   0.95128
"SNW_NW08_9330_BSB006", 13.8, 1,    7579.17,   -0.8,   0.95127, 2,    7579.17, -120.8,   0.95127, 3,    7579.17,  119.2,   0.95127
"SNW_NW08_9236_BSB006", 13.8, 1,    7641.41,   -0.7,   0.95908, 2,    7641.41, -120.7,   0.95908, 3,     7641.4,  119.3,   0.95908
"SNW_NW08_9178_BSB006", 13.8, 1,    7579.38,   -0.8,   0.95129, 2,    7579.37, -120.8,   0.95129, 3,    7579.37,  119.2,   0.95129
"SNW_NW08_9169_BSB006", 13.8, 1,    7579.28,   -0.8,   0.95128, 2,    7579.28, -120.8,   0.95128, 3,    7579.28,  119.2,   0.95128
"SNW_NW08_9230_BSB006", 13.8, 1,    7611.35,   -0.8,   0.95531, 2,    7611.35, -120.8,   0.95531, 3,    7611.35,  119.2,   0.95531
"SNW_NW08_9223_BSB004", 13.8, 1,    7719.54,   -0.5,   0.96889, 2,    7719.54, -120.5,   0.96889, 3,    7719.54,  119.5,   0.96889
"SNW_NW08_9224_BSB004", 13.8, 1,    7719.52,   -0.5,   0.96888, 2,    7719.52, -120.5,   0.96888, 3,    7719.52,  119.5,   0.96888
"SNW_NW08_9019_BSB004", 13.8, 1,    7721.17,   -0.5,   0.96909, 2,    7721.17, -120.5,   0.96909, 3,    7721.17,  119.5,   0.96909
"SNW_NW08_9111_BSB004", 13.8, 1,    7728.36,   -0.5,   0.96999, 2,    7728.36, -120.5,   0.96999, 3,    7728.36,  119.5,   0.96999
"SNW_NW08_9035_BSB004_S", 13.8, 1,    7728.11,   -0.5,   0.96996, 2,    7728.11, -120.5,   0.96996, 3,    7728.11,  119.5,   0.96996
"SNW_NW08_9007_BSB004", 13.8, 1,    7721.25,   -0.5,    0.9691, 2,    7721.25, -120.5,    0.9691, 3,    7721.25,  119.5,    0.9691
"SNW_NW08_9437_BSB006", 13.8, 1,    7594.97,   -0.8,   0.95325, 2,    7594.97, -120.8,   0.95325, 3,    7594.97,  119.2,   0.95325
"SNW_NW08_9300_BSB006_S", 13.8, 1,    7564.48,   -0.8,   0.94942, 2,    7564.47, -120.8,   0.94942, 3,    7564.47,  119.2,   0.94942
"SNW_NW08_9190_BSB006", 13.8, 1,     7580.8,   -0.8,   0.95147, 2,     7580.8, -120.8,   0.95147, 3,     7580.8,  119.2,   0.95147
"SNW_NW08_9191_BSB006", 13.8, 1,     7580.8,   -0.8,   0.95147, 2,     7580.8, -120.8,   0.95147, 3,    7580.79,  119.2,   0.95147
"SNW_NW08_9437_BSB006_S", 13.8, 1,    7594.97,   -0.8,   0.95325, 2,    7594.97, -120.8,   0.95325, 3,    7594.97,  119.2,   0.95325
"SNW_NW08_9222_BSB006", 13.8, 1,    7606.43,   -0.8,   0.95469, 2,    7606.43, -120.8,   0.95469, 3,    7606.43,  119.2,   0.95469
"SNW_NW08_9223_BSB006", 13.8, 1,    7608.09,   -0.8,    0.9549, 2,    7608.09, -120.8,    0.9549, 3,    7608.09,  119.2,    0.9549
"SNW_NW08_9221_BSB006", 13.8, 1,    7604.77,   -0.8,   0.95448, 2,    7604.77, -120.8,   0.95448, 3,    7604.77,  119.2,   0.95448
"SNW_NW08_9216_BSB006", 13.8, 1,    7596.97,   -0.8,    0.9535, 2,    7596.97, -120.8,    0.9535, 3,    7596.97,  119.2,    0.9535
"SNW_NW08_9217_BSB006", 13.8, 1,     7598.5,   -0.8,   0.95369, 2,     7598.5, -120.8,   0.95369, 3,     7598.5,  119.2,   0.95369
"SNW_NW08_9231_BSB006", 13.8, 1,    7615.91,   -0.7,   0.95588, 2,    7615.91, -120.7,   0.95588, 3,     7615.9,  119.3,   0.95588
"SNW_NW08_9232_BSB006", 13.8, 1,    7620.77,   -0.7,   0.95649, 2,    7620.77, -120.7,   0.95649, 3,    7620.77,  119.3,   0.95649
"SNW_NW08_9220_BSB006", 13.8, 1,    7603.16,   -0.8,   0.95428, 2,    7603.15, -120.8,   0.95428, 3,    7603.15,  119.2,   0.95428
"SNW_NW08_9218_BSB006", 13.8, 1,    7600.04,   -0.8,   0.95389, 2,    7600.04, -120.8,   0.95389, 3,    7600.04,  119.2,   0.95389
"SNW_NW08_9215_BSB006", 13.8, 1,    7595.42,   -0.8,   0.95331, 2,    7595.42, -120.8,   0.95331, 3,    7595.42,  119.2,   0.95331
"SNW_NW08_9214_BSB006", 13.8, 1,    7593.84,   -0.8,   0.95311, 2,    7593.84, -120.8,   0.95311, 3,    7593.84,  119.2,   0.95311
"SNW_NW08_9212_BSB006", 13.8, 1,    7590.84,   -0.8,   0.95273, 2,    7590.84, -120.8,   0.95273, 3,    7590.84,  119.2,   0.95273
"SNW_NW08_9213_BSB006", 13.8, 1,    7592.35,   -0.8,   0.95292, 2,    7592.35, -120.8,   0.95292, 3,    7592.35,  119.2,   0.95292
"SNW_NW08_9211_BSB006", 13.8, 1,    7589.72,   -0.8,   0.95259, 2,    7589.71, -120.8,   0.95259, 3,    7589.71,  119.2,   0.95259
"SNW_NW08_9202_BSB006", 13.8, 1,    7585.16,   -0.8,   0.95202, 2,    7585.16, -120.8,   0.95202, 3,    7585.16,  119.2,   0.95202
"SNW_NW08_9208_BSB006", 13.8, 1,    7587.23,   -0.8,   0.95228, 2,    7587.23, -120.8,   0.95228, 3,    7587.23,  119.2,   0.95228
"SNW_NW08_9199_BSB006", 13.8, 1,    7583.64,   -0.8,   0.95183, 2,    7583.64, -120.8,   0.95183, 3,    7583.64,  119.2,   0.95183
"SNW_NW08_9189_BSB006", 13.8, 1,     7580.5,   -0.8,   0.95144, 2,     7580.5, -120.8,   0.95144, 3,     7580.5,  119.2,   0.95144
"SNW_NW08_9188_BSB006", 13.8, 1,    7580.36,   -0.8,   0.95142, 2,    7580.36, -120.8,   0.95142, 3,    7580.36,  119.2,   0.95142
"SNW_NW08_9183_BSB006", 13.8, 1,    7579.76,   -0.8,   0.95134, 2,    7579.76, -120.8,   0.95134, 3,    7579.76,  119.2,   0.95134
"SNW_NW08_9182_BSB006", 13.8, 1,    7579.67,   -0.8,   0.95133, 2,    7579.66, -120.8,   0.95133, 3,    7579.66,  119.2,   0.95133
"SNW_NW08_9181_BSB006", 13.8, 1,    7579.57,   -0.8,   0.95132, 2,    7579.56, -120.8,   0.95132, 3,    7579.56,  119.2,   0.95132
"SNW_NW08_9296_BSB006", 13.8, 1,    7566.91,   -0.8,   0.94973, 2,    7566.91, -120.8,   0.94973, 3,    7566.91,  119.2,   0.94973
"SNW_NW08_9148_BSB004_S", 13.8, 1,    7722.94,   -0.5,   0.96931, 2,    7722.94, -120.5,   0.96931, 3,    7722.94,  119.5,   0.96931
"SNW_NW08_9149_BSB004", 13.8, 1,    7723.04,   -0.5,   0.96933, 2,    7723.04, -120.5,   0.96933, 3,    7723.04,  119.5,   0.96933
"SNW_NW08_9185_BSB004", 13.8, 1,    7720.14,   -0.5,   0.96896, 2,    7720.14, -120.5,   0.96896, 3,    7720.14,  119.5,   0.96896
"SNW_NW08_9014_BSBRJ015_ATV", 13.8, 1,    7670.94,   -0.6,   0.96279, 2,    7670.94, -120.6,   0.96279, 3,    7670.94,  119.4,   0.96279
"SNW_NW08_1427-0470-23", 13.8, 1,    7723.74,   -0.5,   0.96941, 2,    7723.74, -120.5,   0.96941, 3,    7723.74,  119.5,   0.96941
"SNW_NW08_9125_BSB004", 13.8, 1,    7727.94,   -0.5,   0.96994, 2,    7727.94, -120.5,   0.96994, 3,    7727.94,  119.5,   0.96994
"SNW_NW08_9171_BSB004", 13.8, 1,    7727.64,   -0.5,    0.9699, 2,    7727.64, -120.5,    0.9699, 3,    7727.64,  119.5,    0.9699
"SNW_NW08_9171_BSB004_S", 13.8, 1,    7719.96,   -0.5,   0.96894, 2,    7719.96, -120.5,   0.96894, 3,    7719.96,  119.5,   0.96894
"SNW_NW08_9172_BSB004", 13.8, 1,    7719.96,   -0.5,   0.96894, 2,    7719.96, -120.5,   0.96894, 3,    7719.96,  119.5,   0.96894
"SNW_NW08_9180_BSB004", 13.8, 1,    7719.96,   -0.5,   0.96894, 2,    7719.96, -120.5,   0.96894, 3,    7719.96,  119.5,   0.96894
"SNW_NW08_9203_BSB004", 13.8, 1,    7722.33,   -0.5,   0.96924, 2,    7722.33, -120.5,   0.96924, 3,    7722.33,  119.5,   0.96924
"SNW_NW08_9170_BSB004", 13.8, 1,    7727.59,   -0.5,    0.9699, 2,    7727.58, -120.5,    0.9699, 3,    7727.58,  119.5,    0.9699
"SNW_NW08_9032_BSB004", 13.8, 1,    7728.05,   -0.5,   0.96995, 2,    7728.05, -120.5,   0.96995, 3,    7728.05,  119.5,   0.96995
"SNW_NW08_9033_BSB004", 13.8, 1,    7728.06,   -0.5,   0.96996, 2,    7728.06, -120.5,   0.96996, 3,    7728.06,  119.5,   0.96996
"SNW_NW08_9272_BSB006_S", 13.8, 1,    7585.44,   -0.8,   0.95206, 2,    7585.44, -120.8,   0.95206, 3,    7585.44,  119.2,   0.95206
"SNW_NW08_9206_BSB004", 13.8, 1,    7722.97,   -0.5,   0.96932, 2,    7722.97, -120.5,   0.96932, 3,    7722.97,  119.5,   0.96932
"SNW_NW08_9329_BSB006", 13.8, 1,    7579.17,   -0.8,   0.95127, 2,    7579.17, -120.8,   0.95127, 3,    7579.17,  119.2,   0.95127
"SNW_NW08_9219_BSB006", 13.8, 1,    7601.61,   -0.8,   0.95409, 2,    7601.61, -120.8,   0.95408, 3,    7601.61,  119.2,   0.95408
"SNW_NW08_9193_BSB006", 13.8, 1,    7581.14,   -0.8,   0.95152, 2,    7581.14, -120.8,   0.95152, 3,    7581.14,  119.2,   0.95152
"SNW_NW08_931-0135-23", 13.8, 1,    7749.41,   -0.4,   0.97264, 2,    7749.41, -120.4,   0.97264, 3,    7749.41,  119.6,   0.97264
"SNW_NW08_11291757", 13.8, 1,    7580.61,   -0.8,   0.95145, 2,    7580.61, -120.8,   0.95145, 3,    7580.61,  119.2,   0.95145
"SNW_NW08_11291758", 13.8, 1,    7580.61,   -0.8,   0.95145, 2,    7580.61, -120.8,   0.95145, 3,    7580.61,  119.2,   0.95145
"SNW_NW08_11403611", 13.8, 1,    7930.16,   -0.2,   0.99532, 2,    7930.16, -120.2,   0.99532, 3,    7930.16,  119.8,   0.99532
"SNW_NW08_11403610", 13.8, 1,    7907.69,   -0.2,    0.9925, 2,    7907.69, -120.2,    0.9925, 3,    7907.69,  119.8,    0.9925
"SNW_NW08_11403609", 13.8, 1,    7885.04,   -0.2,   0.98966, 2,    7885.04, -120.2,   0.98966, 3,    7885.04,  119.8,   0.98966
"SNW_NW08_11290466", 13.8, 1,    7868.37,   -0.2,   0.98757, 2,    7868.37, -120.2,   0.98757, 3,    7868.37,  119.8,   0.98757
"SNW_NW08_9075_BSBRJ015_ATV_S", 13.8, 1,    7859.31,   -0.2,   0.98643, 2,    7859.31, -120.2,   0.98643, 3,    7859.31,  119.8,   0.98643
"SNW_NW08_11292550", 13.8, 1,    7860.46,   -0.2,   0.98657, 2,    7860.46, -120.2,   0.98657, 3,    7860.46,  119.8,   0.98657
"SNW_NW08_9242_BSB004_S", 13.8, 1,    7721.09,   -0.5,   0.96908, 2,    7721.09, -120.5,   0.96908, 3,    7721.09,  119.5,   0.96908
"SNW_NW08_9059_BSB004", 13.8, 1,    7728.57,   -0.5,   0.97002, 2,    7728.56, -120.5,   0.97002, 3,    7728.56,  119.5,   0.97002
"SNW_NW08_9180_BSB004_S", 13.8, 1,    7719.96,   -0.5,   0.96894, 2,    7719.96, -120.5,   0.96894, 3,    7719.96,  119.5,   0.96894
"SNW_NW08_9218_BSB006_S", 13.8, 1,    7600.04,   -0.8,   0.95389, 2,    7600.04, -120.8,   0.95389, 3,    7600.04,  119.2,   0.95389
"SNW_NW08_9199_BSB006_S", 13.8, 1,    7583.64,   -0.8,   0.95183, 2,    7583.64, -120.8,   0.95183, 3,    7583.64,  119.2,   0.95183
"SNW_NW08_9069_BSB004_S", 13.8, 1,    7728.63,   -0.5,   0.97003, 2,    7728.63, -120.5,   0.97003, 3,    7728.63,  119.5,   0.97003
"SNW_NW08_9007_BSB004_S", 13.8, 1,    7728.14,   -0.5,   0.96997, 2,    7728.14, -120.5,   0.96997, 3,    7728.14,  119.5,   0.96997
"SNW_NW08_9422_BSB006_S", 13.8, 1,    7595.13,   -0.8,   0.95327, 2,    7595.13, -120.8,   0.95327, 3,    7595.13,  119.2,   0.95327
"SNW_NW08_9448_BSB006_S", 13.8, 1,    7595.62,   -0.8,   0.95333, 2,    7595.62, -120.8,   0.95333, 3,    7595.62,  119.2,   0.95333
"SNW_NW08_9178_BSB006_S", 13.8, 1,    7579.38,   -0.8,   0.95129, 2,    7579.37, -120.8,   0.95129, 3,    7579.37,  119.2,   0.95129
"SNW_NW08_9381_BSB006_S", 13.8, 1,    7583.18,   -0.8,   0.95177, 2,    7583.18, -120.8,   0.95177, 3,    7583.18,  119.2,   0.95177
"SNW_NW08_9303_BSB006_S", 13.8, 1,    7562.23,   -0.8,   0.94914, 2,    7562.23, -120.8,   0.94914, 3,    7562.23,  119.2,   0.94914
"SNW_NW08_9046_BSB004_S", 13.8, 1,    7728.47,   -0.5,   0.97001, 2,    7728.47, -120.5,   0.97001, 3,    7728.47,  119.5,   0.97001
"SNW_NW08_9209_BSB006_S", 13.8, 1,    7588.58,   -0.8,   0.95245, 2,    7588.58, -120.8,   0.95245, 3,    7588.58,  119.2,   0.95245
"SNW_NW08_9200_BSB006_S", 13.8, 1,    7584.32,   -0.8,   0.95191, 2,    7584.32, -120.8,   0.95191, 3,    7584.31,  119.2,   0.95191
"SNW_NW08_9008_BSB004_S", 13.8, 1,    7721.25,   -0.5,    0.9691, 2,    7721.25, -120.5,    0.9691, 3,    7721.25,  119.5,    0.9691
"SNW_NW08_9187_BSB003_S", 13.8, 1,    7752.58,   -0.4,   0.97303, 2,    7752.58, -120.4,   0.97303, 3,    7752.58,  119.6,   0.97303
"SNW_NW08_9104_BSB004_S", 13.8, 1,    7729.07,   -0.5,   0.97008, 2,    7729.07, -120.5,   0.97008, 3,    7729.07,  119.5,   0.97008
"SNW_NW08_9293_BSB006_S", 13.8, 1,    7569.56,   -0.8,   0.95006, 2,    7569.56, -120.8,   0.95006, 3,    7569.56,  119.2,   0.95006
"SNW_NW08_9419_BSB006_S", 13.8, 1,    7595.33,   -0.8,    0.9533, 2,    7595.33, -120.8,    0.9533, 3,    7595.33,  119.2,    0.9533
"SNW_NW08_9427_BSB006_S", 13.8, 1,    7594.84,   -0.8,   0.95324, 2,    7594.84, -120.8,   0.95324, 3,    7594.84,  119.2,   0.95324
"SNW_NW08_9124_BSB004_S", 13.8, 1,    7728.75,   -0.5,   0.97004, 2,    7728.75, -120.5,   0.97004, 3,    7728.75,  119.5,   0.97004
"SNW_NW08_9206_BSB006_S", 13.8, 1,    7586.21,   -0.8,   0.95215, 2,    7586.21, -120.8,   0.95215, 3,    7586.21,  119.2,   0.95215
"SNW_NW08_9269_BSB006_S", 13.8, 1,    7588.35,   -0.8,   0.95242, 2,    7588.35, -120.8,   0.95242, 3,    7588.35,  119.2,   0.95242
"SNW_NW08_9188_BSB003_S", 13.8, 1,    7750.37,   -0.4,   0.97276, 2,    7750.37, -120.4,   0.97276, 3,    7750.37,  119.6,   0.97276
"SNW_NW08_9192_BSB006_S", 13.8, 1,    7581.15,   -0.8,   0.95152, 2,    7581.15, -120.8,   0.95152, 3,    7581.15,  119.2,   0.95152
"SNW_NW08_9283_BSB006_S", 13.8, 1,    7573.48,   -0.8,   0.95055, 2,    7573.47, -120.8,   0.95055, 3,    7573.47,  119.2,   0.95055
"SNW_NW08_9312_BSB006_S", 13.8, 1,    7558.36,   -0.8,   0.94866, 2,    7558.35, -120.8,   0.94866, 3,    7558.35,  119.2,   0.94866
"SNW_NW08_9416_BSB006_S", 13.8, 1,    7595.77,   -0.8,   0.95335, 2,    7595.77, -120.8,   0.95335, 3,    7595.77,  119.2,   0.95335
"SNW_NW08_9266_BSB006_S", 13.8, 1,     7595.1,   -0.8,   0.95327, 2,    7595.09, -120.8,   0.95327, 3,    7595.09,  119.2,   0.95327
"SNW_NW08_9297_BSB006_S", 13.8, 1,     7566.6,   -0.8,   0.94969, 2,    7566.59, -120.8,   0.94969, 3,    7566.59,  119.2,   0.94969
"SNW_NW08_9219_BSB003_S", 13.8, 1,    7723.95,   -0.5,   0.96944, 2,    7723.95, -120.5,   0.96944, 3,    7723.95,  119.5,   0.96944
"SNW_NW08_9281_BSB006_S", 13.8, 1,    7576.47,   -0.8,   0.95093, 2,    7576.47, -120.8,   0.95093, 3,    7576.47,  119.2,   0.95093
"SNW_NW08_9320_BSB006_S", 13.8, 1,    7557.71,   -0.8,   0.94858, 2,    7557.71, -120.8,   0.94858, 3,    7557.71,  119.2,   0.94858
"SNW_NW08_9295_BSB006_S", 13.8, 1,    7566.92,   -0.8,   0.94973, 2,    7566.92, -120.8,   0.94973, 3,    7566.91,  119.2,   0.94973
"SNW_NW08_9221_BSB003_S", 13.8, 1,    7723.74,   -0.5,   0.96941, 2,    7723.74, -120.5,   0.96941, 3,    7723.74,  119.5,   0.96941
"SNW_NW08_9120_BSB004_S", 13.8, 1,    7730.99,   -0.5,   0.97032, 2,    7730.99, -120.5,   0.97032, 3,    7730.99,  119.5,   0.97032
"SNW_NW08_9277_BSB006_S", 13.8, 1,    7579.25,   -0.8,   0.95128, 2,    7579.25, -120.8,   0.95128, 3,    7579.25,  119.2,   0.95128
"SNW_NW08_9201_BSB003S", 13.8, 1,    7732.63,   -0.5,   0.97053, 2,    7732.63, -120.5,   0.97053, 3,    7732.63,  119.5,   0.97053
"SNW_NW08_9424_BSB006_S", 13.8, 1,    7594.94,   -0.8,   0.95325, 2,    7594.93, -120.8,   0.95325, 3,    7594.93,  119.2,   0.95325
"SNW_NW08_9079_BSB004_S", 13.8, 1,    7729.05,   -0.5,   0.97008, 2,    7729.05, -120.5,   0.97008, 3,    7729.05,  119.5,   0.97008
"SNW_NW08_9215_BSB006_S", 13.8, 1,    7595.42,   -0.8,   0.95331, 2,    7595.42, -120.8,   0.95331, 3,    7595.42,  119.2,   0.95331
"SNW_NW08_9279_BSB006_S", 13.8, 1,    7578.27,   -0.8,   0.95116, 2,    7578.27, -120.8,   0.95116, 3,    7578.27,  119.2,   0.95116
"SNW_NW08_9216_BSB004_S", 13.8, 1,    7719.89,   -0.5,   0.96893, 2,    7719.89, -120.5,   0.96893, 3,    7719.89,  119.5,   0.96893
"SNW_NW08_9452_BSB006_S", 13.8, 1,    7595.77,   -0.8,   0.95335, 2,    7595.77, -120.8,   0.95335, 3,    7595.76,  119.2,   0.95335
"SNW_NW08_9447_BSB006_S", 13.8, 1,    7595.55,   -0.8,   0.95332, 2,    7595.55, -120.8,   0.95332, 3,    7595.55,  119.2,   0.95332
"SNW_NW08_9052_BSB004_S", 13.8, 1,    7721.54,   -0.5,   0.96914, 2,    7721.54, -120.5,   0.96914, 3,    7721.54,  119.5,   0.96914
"SNW_NW08_9367_BSB006_S", 13.8, 1,    7581.05,   -0.8,    0.9515, 2,    7581.05, -120.8,    0.9515, 3,    7581.04,  119.2,    0.9515
"SNW_NW08_9402_BSB006_S", 13.8, 1,    7595.04,   -0.8,   0.95326, 2,    7595.04, -120.8,   0.95326, 3,    7595.03,  119.2,   0.95326
"SNW_NW08_9105_BSB004_S", 13.8, 1,    7728.88,   -0.5,   0.97006, 2,    7728.88, -120.5,   0.97006, 3,    7728.88,  119.5,   0.97006
"NW_BA2-13", 13.8, 2,    7950.86, -120.1,   0.99792, 3,    7950.86,  119.9,   0.99792, 8,    7950.86,   -0.1,   0.99792
"SNW_NW08_9316_BSB006_S", 13.8, 1,    7557.99,   -0.8,   0.94861, 2,    7557.99, -120.8,   0.94861, 3,    7557.99,  119.2,   0.94861
"SNW_NW08_9325_BSB006_S", 13.8, 1,    7557.44,   -0.8,   0.94854, 2,    7557.44, -120.8,   0.94854, 3,    7557.44,  119.2,   0.94854
"SNW_NW08_9010_BSB004_S", 13.8, 1,    7721.25,   -0.5,    0.9691, 2,    7721.25, -120.5,    0.9691, 3,    7721.25,  119.5,    0.9691
"SNW_NW08_9368_BSB006_S", 13.8, 1,    7581.45,   -0.8,   0.95155, 2,    7581.45, -120.8,   0.95155, 3,    7581.45,  119.2,   0.95155
"SNW_NW08_9270_BSB006_S", 13.8, 1,    7586.17,   -0.8,   0.95215, 2,    7586.17, -120.8,   0.95215, 3,    7586.17,  119.2,   0.95215
"SNW_NW08_9197_BSB006_S", 13.8, 1,    7583.13,   -0.8,   0.95177, 2,    7583.13, -120.8,   0.95177, 3,    7583.12,  119.2,   0.95177
"SNW_NW08_9260_BSB006_S", 13.8, 1,    7605.74,   -0.8,    0.9546, 2,    7605.74, -120.8,    0.9546, 3,    7605.73,  119.2,    0.9546
"SNW_NW08_9194_BSB006_S", 13.8, 1,    7581.64,   -0.8,   0.95158, 2,    7581.64, -120.8,   0.95158, 3,    7581.63,  119.2,   0.95158
"SNW_NW08_9294_BSB006_S", 13.8, 1,    7567.89,   -0.8,   0.94985, 2,    7567.89, -120.8,   0.94985, 3,    7567.88,  119.2,   0.94985
"SNW_NW08_9403_BSB006_S", 13.8, 1,    7595.37,   -0.8,    0.9533, 2,    7595.37, -120.8,    0.9533, 3,    7595.37,  119.2,    0.9533
"SNW_NW08_9318_BSB006_S", 13.8, 1,    7557.82,   -0.8,   0.94859, 2,    7557.82, -120.8,   0.94859, 3,    7557.82,  119.2,   0.94859
"SNW_NW08_9379_BSB006_S", 13.8, 1,    7583.25,   -0.8,   0.95178, 2,    7583.25, -120.8,   0.95178, 3,    7583.25,  119.2,   0.95178
"SNW_NW08_9413_BSB006_S", 13.8, 1,     7596.3,   -0.8,   0.95342, 2,     7596.3, -120.8,   0.95342, 3,     7596.3,  119.2,   0.95342
"SNW_NW08_9233_BSB006_S", 13.8, 1,    7625.85,   -0.7,   0.95713, 2,    7625.85, -120.7,   0.95713, 3,    7625.85,  119.3,   0.95713
"SNW_NW08_9365_BSB006_S", 13.8, 1,    7580.61,   -0.8,   0.95145, 2,    7580.61, -120.8,   0.95145, 3,    7580.61,  119.2,   0.95145
"SNW_NW08_9069_BSB004_BT_FT6411", 0.38, 1,    208.533,   -1.8,    0.9505, 2,    208.533, -121.8,    0.9505, 3,    208.533,  118.2,    0.9505
"SNW_NW08_9373_BSB006_BT_FT9931", 0.38, 1,    204.589,   -2.1,   0.93252, 2,    204.589, -122.1,   0.93252, 3,    204.589,  117.9,   0.93252
"SNW_NW08_9375_BSB006_BT_FP4020", 0.38, 1,    204.595,   -2.1,   0.93255, 2,    204.595, -122.1,   0.93255, 3,    204.595,  117.9,   0.93255
"SNW_NW08_9380_BSB006_BT_FP8229", 0.38, 1,    204.614,   -2.1,   0.93264, 2,    204.614, -122.1,   0.93264, 3,    204.614,  117.9,   0.93264
"SNW_NW08_9384_BSB006_BT_FT6288", 0.38, 1,    204.607,   -2.1,    0.9326, 2,    204.607, -122.1,    0.9326, 3,    204.607,  117.9,    0.9326
"SNW_NW08_9391_BSB006_BT_FT9930", 0.38, 1,    204.692,   -2.1,   0.93299, 2,    204.692, -122.1,   0.93299, 3,    204.692,  117.9,   0.93299
"SNW_NW08_9393_BSB006_BT_FP7161", 0.38, 1,    204.712,   -2.1,   0.93308, 2,    204.712, -122.1,   0.93308, 3,    204.712,  117.9,   0.93308
"SNW_NW08_9396_BSB006_BT_FP6522", 0.38, 1,    204.764,   -2.1,   0.93332, 2,    204.764, -122.1,   0.93332, 3,    204.764,  117.9,   0.93332
"SNW_NW08_9398_BSB006_BT_FT9929", 0.38, 1,    204.826,   -2.1,    0.9336, 2,    204.826, -122.1,    0.9336, 3,    204.826,  117.9,    0.9336
"SNW_NW08_9404_BSB006_BT_FP3381", 0.38, 1,    204.941,   -2.1,   0.93413, 2,    204.941, -122.1,   0.93413, 3,    204.941,  117.9,   0.93413
"SNW_NW08_9413_BSB006_BT_FT0923", 0.38, 1,    204.966,   -2.1,   0.93424, 2,    204.966, -122.1,   0.93424, 3,    204.966,  117.9,   0.93424
"SNW_NW08_9419_BSB006_BT_FT9926", 0.38, 1,     204.94,   -2.1,   0.93412, 2,     204.94, -122.1,   0.93412, 3,     204.94,  117.9,   0.93412
"SNW_NW08_9425_BSB006_BT_FP6587", 0.38, 1,    204.929,   -2.1,   0.93407, 2,    204.929, -122.1,   0.93407, 3,    204.929,  117.9,   0.93407
"SNW_NW08_9427_BSB006_BT_FT9927", 0.38, 1,    204.926,   -2.1,   0.93406, 2,    204.926, -122.1,   0.93406, 3,    204.926,  117.9,   0.93406
"SNW_NW08_9437_BSB006_BT_FT9925", 0.38, 1,     204.93,   -2.1,   0.93408, 2,     204.93, -122.1,   0.93408, 3,     204.93,  117.9,   0.93408
"SNW_NW08_9444_BSB006_BT_FT9924", 0.38, 1,    204.938,   -2.1,   0.93411, 2,    204.938, -122.1,   0.93411, 3,    204.938,  117.9,   0.93411
"SNW_NW08_9449_BSB006_BT_FP6372", 0.38, 1,    204.947,   -2.1,   0.93415, 2,    204.947, -122.1,   0.93415, 3,    204.947,  117.9,   0.93415
"SNW_NW08_9193_BSB006_BT_FP1266", 0.38, 1,    204.558,   -2.1,   0.93238, 2,    204.558, -122.1,   0.93238, 3,    204.558,  117.9,   0.93238
"SNW_NW08_9033_BSB004_BT_FT6407", 0.38, 1,    208.517,   -1.8,   0.95043, 2,    208.517, -121.8,   0.95043, 3,    208.517,  118.2,   0.95043
"SNW_NW08_9076_BSB004_BT_FT6402", 0.38, 1,    208.524,   -1.8,   0.95046, 2,    208.524, -121.8,   0.95046, 3,    208.524,  118.2,   0.95046
"SNW_NW08_9039_BSB004_BT_FT6409", 0.38, 1,    208.531,   -1.8,   0.95049, 2,    208.531, -121.8,   0.95049, 3,    208.531,  118.2,   0.95049
"SNW_NW08_9003_BSB004_BT_FT6403", 0.38, 1,    208.519,   -1.8,   0.95044, 2,    208.519, -121.8,   0.95044, 3,    208.519,  118.2,   0.95044
"SNW_NW08_9278_BSB006_BT_FF0484", 0.38, 1,    204.506,   -2.1,   0.93215, 2,    204.506, -122.1,   0.93215, 3,    204.506,  117.9,   0.93215
"SNW_NW08_9280_BSB006_BT_FX4806", 0.38, 1,    204.479,   -2.1,   0.93202, 2,    204.479, -122.1,   0.93202, 3,    204.479,  117.9,   0.93202
"SNW_NW08_9293_BSB006_BT_FF3539", 0.38, 1,    204.246,   -2.2,   0.93096, 2,    204.246, -122.2,   0.93096, 3,    204.246,  117.8,   0.93096
"SNW_NW08_9294_BSB006_BT_FT9937", 0.38, 1,    204.201,   -2.2,   0.93075, 2,    204.201, -122.2,   0.93075, 3,    204.201,  117.8,   0.93075
"SNW_NW08_9296_BSB006_BT_FP1243", 0.38, 1,    204.174,   -2.2,   0.93063, 2,    204.174, -122.2,   0.93063, 3,    204.174,  117.8,   0.93063
"SNW_NW08_9298_BSB006_BT_FP7398", 0.38, 1,    204.166,   -2.2,   0.93059, 2,    204.165, -122.2,   0.93059, 3,    204.165,  117.8,   0.93059
"SNW_NW08_9163_BSB004_BT_FX2529", 0.38, 1,    208.449,   -1.8,   0.95012, 2,    208.449, -121.8,   0.95012, 3,    208.449,  118.2,   0.95012
"SNW_NW08_9010_BSB004_BT_FT6404", 0.38, 1,     208.33,   -1.8,   0.94957, 2,     208.33, -121.8,   0.94957, 3,     208.33,  118.2,   0.94957
"SNW_NW08_9195_BSB003_BT_FM1277", 0.38, 1,    208.727,   -1.8,   0.95138, 2,    208.727, -121.8,   0.95138, 3,    208.727,  118.2,   0.95138
"SNW_NW08_9055_BSB004_BT_FX2553", 0.38, 1,    208.346,   -1.8,   0.94965, 2,    208.346, -121.8,   0.94965, 3,    208.346,  118.2,   0.94965
"SNW_NW08_9205_BSB006_BT_FT9946", 0.38, 1,    204.688,   -2.1,   0.93297, 2,    204.688, -122.1,   0.93297, 3,    204.688,  117.9,   0.93297
"SNW_NW08_9207_BSB006_BT_FP8401", 0.38, 1,    198.545,   -4.0,   0.90497, 2,    198.545, -124.0,   0.90497, 3,    198.545,  116.0,   0.90497
"SNW_NW08_9369_BSB006_BT_FIC0066", 0.38, 1,    204.566,   -2.1,   0.93242, 2,    204.566, -122.1,   0.93242, 3,    204.566,  117.9,   0.93242
"SNW_NW08_9216_BSB004_BT_FX4879", 0.38, 1,    208.293,   -1.8,   0.94941, 2,    208.293, -121.8,   0.94941, 3,    208.293,  118.2,   0.94941
"SNW_NW08_9219_BSB004_BT_FZ2554", 0.38, 1,    208.287,   -1.8,   0.94938, 2,    208.287, -121.8,   0.94938, 3,    208.287,  118.2,   0.94938
"SNW_NW08_9220_BSB006_BT_FT9942", 0.38, 1,     205.15,   -2.1,   0.93508, 2,     205.15, -122.1,   0.93508, 3,     205.15,  117.9,   0.93508
"SNW_NW08_9168_BSB004_BT_FX2530", 0.38, 1,    208.486,   -1.8,   0.95029, 2,    208.486, -121.8,   0.95029, 3,    208.486,  118.2,   0.95029
"SNW_NW08_9105_BSB004_BT_FX2557", 0.38, 1,     208.54,   -1.8,   0.95053, 2,     208.54, -121.8,   0.95053, 3,     208.54,  118.2,   0.95053
"SNW_NW08_9308_BSB006_BT_FZ6734", 0.38, 1,    203.983,   -2.2,   0.92976, 2,    203.983, -122.2,   0.92976, 3,    203.983,  117.8,   0.92976
"SNW_NW08_9261_BSB006_BT_FP3374", 0.38, 1,     205.22,   -2.1,    0.9354, 2,     205.22, -122.1,    0.9354, 3,     205.22,  117.9,    0.9354
"SNW_NW08_9240_BSB004_BT_FT6405", 0.38, 1,    208.325,   -1.8,   0.94955, 2,    208.325, -121.8,   0.94955, 3,    208.325,  118.2,   0.94955
"SNW_NW08_9019_BSB004_BT_FP0323", 0.38, 1,    208.327,   -1.8,   0.94956, 2,    208.327, -121.8,   0.94956, 3,    208.327,  118.2,   0.94956
"SNW_NW08_9349_BSB006_BT_FT9934", 0.38, 1,    204.492,   -2.1,   0.93208, 2,    204.492, -122.1,   0.93208, 3,    204.492,  117.9,   0.93208
"SNW_NW08_9356_BSB006_BT_FT1741", 0.38, 1,    204.493,   -2.1,   0.93208, 2,    204.493, -122.1,   0.93208, 3,    204.493,  117.9,   0.93208
...